ieee_feeder/ieee37_Curr_Elem.Txt

CIRCUIT ELEMENT CURRENTS

(Currents into element from indicated bus)

Power Delivery Elements

  Bus     Phase    Magnitude, A     Angle      (Real)   +j  (Imag)

ELEMENT = "Vsource.SOURCE"
SOURCEBUS     1           182.53 /_  153.9 =    -163.97 +j    80.193
------------
SOURCEBUS     0           182.53 /_  -26.1 =     163.97 +j   -80.193

ELEMENT = "Line.L1"
701           1           135.75 /_  -25.9 =     122.14 +j   -59.252
------------
702           1           135.75 /_  154.1 =    -122.14 +j    59.257

ELEMENT = "Line.L2"
702           1           13.101 /_  -25.2 =     11.851 +j   -5.5833
------------
705           1           13.101 /_  154.8 =    -11.851 +j    5.5855

ELEMENT = "Line.L3"
702           1           39.844 /_  -25.8 =     35.873 +j    -17.34
------------
713           1           39.845 /_  154.2 =    -35.873 +j    17.342

ELEMENT = "Line.L4"
702           1           82.811 /_  -26.0 =     74.415 +j   -36.334
------------
703           1           82.814 /_  154.0 =    -74.415 +j    36.341

ELEMENT = "Line.L5"
703           1           18.818 /_  -26.6 =     16.825 +j     -8.43
------------
727           1           18.819 /_  153.4 =    -16.825 +j    8.4313

ELEMENT = "Line.L6"
703           1           63.997 /_  -25.9 =      57.59 +j   -27.911
------------
730           1           63.999 /_  154.1 =     -57.59 +j    27.914

ELEMENT = "Line.L7"
704           1           9.0534 /_  -25.3 =     8.1852 +j   -3.8686
------------
714           1           9.0536 /_  154.7 =    -8.1852 +j     3.869

ELEMENT = "Line.L8"
704           1            24.54 /_  -26.1 =     22.031 +j   -10.811
------------
720           1           24.542 /_  153.9 =    -22.031 +j    10.815

ELEMENT = "Line.L9"
705           1           6.8504 /_  -25.3 =     6.1956 +j   -2.9228
------------
742           1           6.8511 /_  154.7 =    -6.1956 +j    2.9245

ELEMENT = "Line.L10"
705           1           6.2511 /_  -25.2 =     5.6556 +j   -2.6627
------------
712           1           6.2516 /_  154.8 =    -5.6556 +j     2.664

ELEMENT = "Line.L11"
706           1           3.1364 /_  -26.6 =     2.8045 +j   -1.4042
------------
725           1            3.137 /_  153.4 =    -2.8045 +j    1.4056

ELEMENT = "Line.L12"
707           1            3.139 /_  -26.5 =     2.8081 +j   -1.4029
------------
724           1           3.1408 /_  153.4 =    -2.8081 +j    1.4069

ELEMENT = "Line.L13"
707           1           12.006 /_  -26.4 =      10.75 +j   -5.3454
------------
722           1           12.006 /_  153.6 =     -10.75 +j     5.346

ELEMENT = "Line.L14"
708           1             48.3 /_  -26.0 =      43.42 +j   -21.157
------------
733           1           48.301 /_  154.0 =     -43.42 +j    21.159

ELEMENT = "Line.L15"
708           1           3.1458 /_  -26.6 =     2.8126 +j   -1.4089
------------
732           1           3.1465 /_  153.4 =    -2.8126 +j    1.4106

ELEMENT = "Line.L16"
709           1           6.2796 /_  -25.2 =     5.6812 +j   -2.6752
------------
731           1           6.2809 /_  154.8 =    -5.6812 +j    2.6784

ELEMENT = "Line.L17"
709           1           51.445 /_  -26.0 =     46.232 +j   -22.564
------------
708           1           51.446 /_  154.0 =    -46.232 +j    22.566

ELEMENT = "Line.L18"
710           1           6.3019 /_  -25.2 =     5.7006 +j   -2.6864
------------
735           1           6.3023 /_  154.8 =    -5.7006 +j    2.6874

ELEMENT = "Line.L19"
710           1           3.1525 /_  -26.5 =     2.8207 +j   -1.4078
------------
736           1           3.1555 /_  153.4 =    -2.8207 +j    1.4145

ELEMENT = "Line.L20"
711           1           3.1577 /_  -26.6 =     2.8233 +j   -1.4141
------------
741           1           3.1586 /_  153.4 =    -2.8233 +j    1.4162

ELEMENT = "Line.L21"
711           1           6.3099 /_  -25.2 =     5.7077 +j   -2.6902
------------
740           1           6.3103 /_  154.8 =    -5.7077 +j    2.6912

ELEMENT = "Line.L22"
713           1           33.592 /_  -25.9 =     30.216 +j   -14.677
------------
704           1           33.593 /_  154.1 =    -30.216 +j    14.679

ELEMENT = "Line.L23"
714           1             6.26 /_  -25.2 =     5.6641 +j   -2.6656
------------
718           1           6.2612 /_  154.8 =    -5.6641 +j    2.6683

ELEMENT = "Line.L24"
720           1           15.143 /_  -26.4 =     13.558 +j   -6.7434
------------
707           1           15.145 /_  153.5 =    -13.558 +j    6.7483

ELEMENT = "Line.L25"
720           1            3.135 /_  -26.5 =     2.8045 +j    -1.401
------------
706           1           3.1364 /_  153.4 =    -2.8045 +j    1.4042

ELEMENT = "Line.L26"
727           1           15.683 /_  -26.6 =     14.021 +j   -7.0258
------------
744           1           15.684 /_  153.4 =    -14.021 +j    7.0273

ELEMENT = "Line.L27"
730           1           57.724 /_  -25.9 =     51.914 +j   -25.238
------------
709           1           57.724 /_  154.1 =    -51.914 +j    25.239

ELEMENT = "Line.L28"
733           1           42.011 /_  -26.1 =      37.73 +j   -18.476
------------
734           1           42.012 /_  153.9 =     -37.73 +j    18.479

ELEMENT = "Line.L29"
734           1           29.407 /_  -26.2 =      26.39 +j   -12.974
------------
737           1           29.408 /_  153.8 =     -26.39 +j    12.977

ELEMENT = "Line.L30"
734           1           9.4527 /_  -25.6 =     8.5213 +j   -4.0915
------------
710           1           9.4539 /_  154.3 =    -8.5213 +j    4.0942

ELEMENT = "Line.L31"
737           1           18.902 /_  -25.9 =     16.999 +j   -8.2667
------------
738           1           18.903 /_  154.1 =    -16.999 +j    8.2688

ELEMENT = "Line.L32"
738           1            9.466 /_  -25.7 =      8.531 +j   -4.1022
------------
711           1            9.467 /_  154.3 =     -8.531 +j    4.1043

ELEMENT = "Line.L33"
744           1           9.4109 /_  -26.6 =     8.4132 +j    -4.217
------------
728           1           9.4114 /_  153.4 =    -8.4132 +j     4.218

ELEMENT = "Line.L34"
744           1           3.1362 /_  -26.6 =     2.8042 +j   -1.4044
------------
729           1           3.1369 /_  153.4 =    -2.8042 +j    1.4059

ELEMENT = "Line.L35"
SOURCEBUS     1           182.53 /_  -26.1 =     163.97 +j   -80.193
------------
701           1           182.54 /_  153.9 =    -163.97 +j    80.203

= = = = = = = = = = = = = = = = = = =  = = = = = = = = = = =  = =

Power Conversion Elements

  Bus     Phase    Magnitude, A     Angle      (Real)   +j  (Imag)

ELEMENT = "Load.S701"
701           1           46.787 /_  -26.6 =     41.834 +j   -20.951
701           0           46.787 /_  153.4 =    -41.834 +j    20.951

ELEMENT = "Load.S712"
712           1           6.2515 /_  -25.2 =     5.6555 +j   -2.6639
712           0           6.2515 /_  154.8 =    -5.6555 +j    2.6639

ELEMENT = "Load.S742"
742           1            6.851 /_  -25.3 =     6.1955 +j   -2.9244
742           0            6.851 /_  154.7 =    -6.1955 +j    2.9244

ELEMENT = "Load.S713"
713           1           6.2529 /_  -25.2 =     5.6566 +j   -2.6649
713           0           6.2529 /_  154.8 =    -5.6566 +j    2.6649

ELEMENT = "Load.S714"
714           1           2.7936 /_  -25.5 =     2.5211 +j   -1.2034
714           0           2.7936 /_  154.5 =    -2.5211 +j    1.2034

ELEMENT = "Load.S718"
718           1           6.2611 /_  -25.2 =      5.664 +j   -2.6683
718           0           6.2611 /_  154.8 =     -5.664 +j    2.6683

ELEMENT = "Load.S720"
720           1           6.2658 /_  -25.2 =     5.6681 +j   -2.6706
720           0           6.2658 /_  154.8 =    -5.6681 +j    2.6706

ELEMENT = "Load.S724"
724           1           3.1408 /_  -26.6 =      2.808 +j   -1.4069
724           0           3.1408 /_  153.4 =     -2.808 +j    1.4069

ELEMENT = "Load.S722"
722           1           12.006 /_  -26.4 =      10.75 +j   -5.3459
722           0           12.006 /_  153.6 =     -10.75 +j    5.3459

ELEMENT = "Load.S725"
725           1            3.137 /_  -26.6 =     2.8045 +j   -1.4056
725           0            3.137 /_  153.4 =    -2.8045 +j    1.4056

ELEMENT = "Load.S727"
727           1           3.1358 /_  -26.6 =     2.8032 +j   -1.4055
727           0           3.1358 /_  153.4 =    -2.8032 +j    1.4055

ELEMENT = "Load.S744"
744           1           3.1366 /_  -26.6 =     2.8039 +j   -1.4058
744           0           3.1366 /_  153.4 =    -2.8039 +j    1.4058

ELEMENT = "Load.S729"
729           1           3.1368 /_  -26.6 =     2.8041 +j   -1.4059
729           0           3.1368 /_  153.4 =    -2.8041 +j    1.4059

ELEMENT = "Load.S728"
728           1           9.4112 /_  -26.6 =     8.4131 +j    -4.218
728           0           9.4112 /_  153.4 =    -8.4131 +j     4.218

ELEMENT = "Load.S730"
730           1           6.2755 /_  -25.2 =     5.6763 +j   -2.6759
730           0           6.2755 /_  154.8 =    -5.6763 +j    2.6759

ELEMENT = "Load.S731"
731           1           6.2808 /_  -25.2 =     5.6811 +j   -2.6783
731           0           6.2808 /_  154.8 =    -5.6811 +j    2.6783

ELEMENT = "Load.S732"
732           1           3.1464 /_  -26.6 =     2.8126 +j   -1.4105
732           0           3.1464 /_  153.4 =    -2.8126 +j    1.4105

ELEMENT = "Load.S733"
733           1           6.2906 /_  -25.2 =     5.6899 +j   -2.6826
733           0           6.2906 /_  154.8 =    -5.6899 +j    2.6826

ELEMENT = "Load.S734"
734           1            3.153 /_  -26.6 =     2.8183 +j   -1.4136
734           0            3.153 /_  153.4 =    -2.8183 +j    1.4136

ELEMENT = "Load.S737"
737           1           10.506 /_  -26.6 =     9.3908 +j   -4.7103
737           0           10.506 /_  153.4 =    -9.3908 +j    4.7103

ELEMENT = "Load.S738"
738           1            9.437 /_  -26.2 =     8.4675 +j   -4.1665
738           0            9.437 /_  153.8 =    -8.4675 +j    4.1665

ELEMENT = "Load.S741"
741           1           3.1585 /_  -26.6 =     2.8232 +j   -1.4161
741           0           3.1585 /_  153.4 =    -2.8232 +j    1.4161

ELEMENT = "Load.S740"
740           1           6.3101 /_  -25.2 =     5.7074 +j   -2.6912
740           0           6.3101 /_  154.8 =    -5.7074 +j    2.6912

ELEMENT = "Load.S736"
736           1           3.1554 /_  -26.6 =     2.8206 +j   -1.4144
736           0           3.1554 /_  153.4 =    -2.8206 +j    1.4144

ELEMENT = "Load.S735"
735           1           6.3021 /_  -25.2 =     5.7004 +j   -2.6874
735           0           6.3021 /_  154.8 =    -5.7004 +j    2.6874

