ieee_feeder/ieee37_VLN_Node.Txt

LINE-GROUND and LINE-LINE VOLTAGES BY BUS & NODE

Bus       Node    VLN (kV)   Angle      pu     Base kV    Node-Node   VLL (kV)  Angle      pu

SOURCEBUS 1         5.04 /_    0.0      1.05     8.314
701 ..... 1       5.0158 /_    0.0     1.045     8.314
702 ..... 1       4.9237 /_    0.3    1.0258     8.314
705 ..... 1       4.9118 /_    0.3    1.0233     8.314
713 ..... 1       4.8979 /_    0.4    1.0204     8.314
703 ..... 1       4.8439 /_    0.5    1.0091     8.314
727 ..... 1       4.8294 /_    0.6    1.0061     8.314
730 ..... 1       4.8393 /_    0.5    1.0082     8.314
704 ..... 1       4.8658 /_    0.5    1.0137     8.314
714 ..... 1       4.8634 /_    0.5    1.0132     8.314
720 ..... 1       4.8329 /_    0.6    1.0068     8.314
742 ..... 1       4.9071 /_    0.4    1.0223     8.314
712 ..... 1       4.9083 /_    0.4    1.0226     8.314
706 ..... 1       4.8267 /_    0.6    1.0056     8.314
725 ..... 1       4.8224 /_    0.6    1.0047     8.314
707 ..... 1       4.8049 /_    0.8     1.001     8.314
724 ..... 1       4.8025 /_    0.8    1.0005     8.314
722 ..... 1       4.8031 /_    0.8    1.0006     8.314
708 ..... 1       4.7878 /_    0.7   0.99745     8.314
733 ..... 1       4.7607 /_    0.8   0.99181     8.314
732 ..... 1       4.7829 /_    0.7   0.99643     8.314
709 ..... 1       4.8182 /_    0.6    1.0038     8.314
731 ..... 1        4.812 /_    0.6    1.0025     8.314
710 ..... 1       4.7031 /_    1.0    0.9798     8.314
735 ..... 1       4.6999 /_    1.0   0.97916     8.314
736 ..... 1        4.685 /_    1.1   0.97605     8.314
711 ..... 1       4.6706 /_    1.1   0.97305     8.314
741 ..... 1       4.6663 /_    1.1   0.97216     8.314
740 ..... 1       4.6675 /_    1.1   0.97239     8.314
718 ..... 1       4.8556 /_    0.5    1.0116     8.314
744 ..... 1       4.8207 /_    0.6    1.0043     8.314
734 ..... 1       4.7192 /_    0.9   0.98316     8.314
737 ..... 1       4.6919 /_    1.0   0.97749     8.314
738 ..... 1       4.6791 /_    1.1   0.97482     8.314
728 ..... 1       4.8176 /_    0.6    1.0037     8.314
729 ..... 1       4.8164 /_    0.6    1.0034     8.314
